<?xml version="1.0" encoding="ISO-8859-1"?>
<!-- cylinder.fix -->

<febio_spec version="4.0">
 	<Module type="solid"/>
 	<Control>
		<analysis>STATIC</analysis>
		<time_steps>50</time_steps>
		<step_size>0.02</step_size>   
		<time_stepper>
			<dtmin>0.01</dtmin>
			<dtmax>0.1</dtmax>
			<max_retries>5</max_retries>
			<opt_iter>10</opt_iter>
		</time_stepper> 
		<solver type="solid">
			<symmetric_stiffness>symmetric</symmetric_stiffness>
			<equation_scheme>staggered</equation_scheme>
			<equation_order>default</equation_order>
			<optimize_bw>0</optimize_bw>
			<lstol>0.9</lstol>
			<lsmin>0.01</lsmin>
			<lsiter>5</lsiter>
			<max_refs>15</max_refs>
			<check_zero_diagonal>0</check_zero_diagonal>
			<zero_diagonal_tol>0</zero_diagonal_tol>
			<force_partition>0</force_partition>
			<reform_each_time_step>1</reform_each_time_step>
			<reform_augment>0</reform_augment>
			<diverge_reform>1</diverge_reform>
			<min_residual>1e-20</min_residual>
			<max_residual>0</max_residual>
			<dtol>0.001</dtol>
			<etol>0.01</etol>
			<rtol>0</rtol>
			<rhoi>-2</rhoi>
			<alpha>1</alpha>
			<beta>0.25</beta>
			<gamma>0.5</gamma>
			<logSolve>0</logSolve>
			<arc_length>0</arc_length>
			<arc_length_scale>0</arc_length_scale>
			<qn_method type="BFGS">
				<max_ups>0</max_ups>
				<max_buffer_size>0</max_buffer_size>
				<cycle_buffer>1</cycle_buffer>
				<cmax>100000</cmax>
			</qn_method>
		</solver>
	</Control>

	<Material>
		<material id="1" name="mat1" type="gordon1966">
			<c1>0.1152</c1> <!-- MPa - Vogt 2006 -->
			<c2>0.0540</c2> <!-- MPa - Vogt 2006 -->
			<c3>0.05</c3> <!-- dimensionless - Röhrle 2008 -->
			<c4>6.6</c4> <!-- dimensionless - Röhrle 2008 -->
			<c5>2.1751</c5> <!-- dimensionless - Röhrle 2008 -->
			<k>2.08</k> <!-- MPa - 100 < K/C1 < 10000 - water=2.08E9 -->
			<lam_max>1.4</lam_max>
			<smax>1</smax>		
			<ascl lc="1">1</ascl>
			<fiber>0,0,0</fiber>
		</material>		
	</Material>	
	
	<Mesh>
		<Nodes>
			<node id="1">-20.334822279438997,-1.6084631171287461,-5.0030695682482538</node>
			<node id="2">-19.285436022141403,-1.6474508804161874,-5.0414669383996445</node>
			<node id="3">-19.298702860326711,-0.685238596407716,-5.0716741578692335</node>
			<node id="4">-20.358011783645486,-0.6666373074735279,-5.0249762738016764</node>
			<node id="5">-20.684364346576464,-1.9630494536560669,-3.911532707396716</node>
			<node id="6">-19.370374317601031,-2.0953013644758568,-4.0107805671218964</node>
			<node id="7">-19.423839880865424,-0.7770702407669908,-4.138429052204385</node>
			<node id="8">-20.783948481470629,-0.7212386778647709,-4.0027597363384442</node>
			<node id="9">-17.69835079558744,-1.6779038312498379,-5.0624341218522981</node>
			<node id="10">-17.705164236117066,-0.7010645563476284,-5.0982334262396135</node>
			<node id="11">-17.711157408037719,-2.1690351485602765,-4.0363024160107735</node>
			<node id="12">-17.739024751026112,-0.8110120117183576,-4.181496021979062</node>
			<node id="13">-15.859004989799171,-1.7018529806963692,-5.0683317289456456</node>
			<node id="14">-15.863983001698916,-0.7133395594145524,-5.1080540522148873</node>
			<node id="15">-15.846965210903383,-2.2320966728602363,-4.0330921296117217</node>
			<node id="16">-15.869527170201338,-0.8362066639506258,-4.1922157868970869</node>
			<node id="17">-13.918402709215671,-1.7158207488589441,-5.0693467601804485</node>
			<node id="18">-13.921544524749141,-0.7208417335119832,-5.1109165336586062</node>
			<node id="19">-13.906966717838421,-2.2656521209947834,-4.029704522630454</node>
			<node id="20">-13.92056354361541,-0.8505880222784503,-4.1943874355246094</node>
<!-- ... 1189 like lines cut -->
		</Nodes>
		<Elements type="hex8" name="part1" mat="1">
			<elem id="1">1,2,3,4,5,6,7,8</elem>
			<elem id="2">2,9,10,3,6,11,12,7</elem>
			<elem id="3">9,13,14,10,11,15,16,12</elem>
			<elem id="4">13,17,18,14,15,19,20,16</elem>
			<elem id="5">17,21,22,18,19,23,24,20</elem>
			<elem id="6">21,25,26,22,23,27,28,24</elem>
			<elem id="7">25,29,30,26,27,31,32,28</elem>
			<elem id="8">29,33,34,30,31,35,36,32</elem>
			<elem id="9">33,37,38,34,35,39,40,36</elem>
			<elem id="10">37,41,42,38,39,43,44,40</elem>
			<elem id="11">41,45,46,42,43,47,48,44</elem>
			<elem id="12">45,49,50,46,47,51,52,48</elem>
			<elem id="13">49,53,54,50,51,55,56,52</elem>
			<elem id="14">53,57,58,54,55,59,60,56</elem>
			<elem id="15">57,61,62,58,59,63,64,60</elem>
			<elem id="16">61,65,66,62,63,67,68,64</elem>
			<elem id="17">65,69,70,66,67,71,72,68</elem>
			<elem id="18">69,73,74,70,71,75,76,72</elem>
			<elem id="19">73,77,78,74,75,79,80,76</elem>
			<elem id="20">77,81,82,78,79,83,84,80</elem>
<!-- ... 794 like lines cut -->
		</Elements>
		<NodeSet name="nodeset1">
			5, 8, 90, 92, 136, 182, 243, 244, 245, 246, 247, 273, 274, 275, 299, 300, 301, 420, 445, 446, 447, 471, 472, 495, 496, 519, 521, 638, 662, 663, 664, 691, 692, 717, 718, 744, 856, 857, 858, 883, 884, 908, 909, 1023, 1047, 1048, 1049, 1073, 1074"/>
		</NodeSet>
	</Mesh>
	
	<MeshDomains>
		<SolidDomain name="part1" type="elastic-solid" mat="mat1" />
	</MeshDomains>
	
	<MeshData>
		<ElementData type="fiber" elem_set="part1">
			<elem lid = "1">0.5301577596188049,-0.7541165111798748,0.3876093877628136</elem>
			<elem lid = "2">0.5301577596188049,-0.7541165111798748,0.3876093877628136</elem>
			<elem lid = "3">0.530634439567132,-0.3656353526347179,0.7646815549292144</elem>
			<elem lid = "4">0.5306344395671321,-0.6153007912449009,-0.582951136750478</elem>
			<elem lid = "5">0.530157759618805,-0.8078936314034701,-0.2573725514768104</elem>
			<elem lid = "6">0.530157759618805,-0.8078936314034701,-0.2573725514768104</elem>
			<elem lid = "7">0.530157759618805,-0.8078936314034701,-0.2573725514768104</elem>
			<elem lid = "8">0.530634439567132,-0.8229849034484184,0.2027879193671882</elem>
			<elem lid = "9">0.530634439567132,-0.7662922577036939,0.3622475221842812</elem>
			<elem lid = "10">0.530634439567132,-0.7662922577036939,0.3622475221842812</elem>
			<elem lid = "11">0.530634439567132,-0.4279079548050485,0.7316569372047505</elem>
			<elem lid = "12">0.5306344395671319,-0.5647360789828606,-0.6320603235770618</elem>
			<elem lid = "13">0.5306344395671319,-0.5647360789828606,-0.6320603235770618</elem>
			<elem lid = "14">0.530634439567132,-0.8229849034484184,-0.2027879193671882</elem>
			<elem lid = "15">0.530634439567132,-0.8229849034484184,-0.2027879193671882</elem>
			<elem lid = "16">0.530634439567132,-0.7937414237151047,0.2973241393227168</elem>
			<elem lid = "17">0.530634439567132,-0.7937414237151047,0.2973241393227168</elem>
			<elem lid = "18">0.530634439567132,-0.7937414237151047,0.2973241393227168</elem>
			<elem lid = "19">0.5301577596188049,-0.3782371460054024,0.7588606007019058</elem>
			<elem lid = "20">0.5301577596188066,-0.5436450981354571,-0.6506786896689156</elem>
<!-- ... 794 like lines cut -->
		</ElementData>
	</MeshData>

	<Boundary>
		<bc name="bc1" type="zero displacement" node_set="nodeset1">
			<x_dof>1</x_dof>
			<y_dof>1</y_dof>
			<z_dof>1</z_dof>
		</bc>
	</Boundary>

	<LoadData>
		<load_controller id="1" type="loadcurve">
			<interpolate>SMOOTH</interpolate>
			<extend>CONSTANT</extend>
			<points>
				<point>0,0.00001</point>
				<point>0.1,0.00005</point>
				<point>0.2,0.0001</point>
				<point>0.3,0,0005</point>
				<point>0.4,0.001</point>
				<point>0.5,0.005</point>
				<point>0.6,0.01</point>
				<point>0.7,0.05</point>
				<point>0.8,0.1</point>
				<point>0.9,0.5</point>
				<point>1,1</point>
			</points>
		</load_controller>
	</LoadData>

	<Output>
		<plotfile type="febio">
			<var type="displacement"/>
			<var type="stress"/>
		</plotfile>
		<logfile>
			<rigid_body_data data="x;y;z;qx;qy;qz;qw;Fx;Fy;Fz;Mx;My;Mz" file="data.rigid" delim=","></rigid_body_data>
		</logfile>
	</Output>

</febio_spec>
